@<TRIPOS>MOLECULE
./pdbUnique/7YY_unique.pdb
 61 63 0 0 0
SMALL
GASTEIGER

@<TRIPOS>ATOM
      1 C1        1.6202   -1.6957   -1.5254 C.2     1  UNL1        0.0900
      2 C2        4.9390   -3.7042    0.8566 C.3     1  UNL1       -0.0101
      3 F1        2.5317   -3.5728    0.4991 F       1  UNL1       -0.2075
      4 F2        5.0514   -1.3380   -0.6439 F       1  UNL1       -0.2028
      5 C3        3.7514   -3.0362    0.2527 C.2     1  UNL1        0.1326
      6 H1        5.7896   -3.0220    0.9529 H       1  UNL1        0.0301
      7 H2        2.8744   -0.0999   -0.9737 H       1  UNL1        0.0669
      8 C4        2.7385   -1.1753   -1.0184 C.2     1  UNL1        0.0039
      9 C5        3.8414   -1.9158   -0.4763 C.2     1  UNL1        0.1561
     10 C6        0.5115    1.6639    0.0158 C.3     2  UNL2        0.1639
     11 F3        0.5941   -0.9153   -1.9166 F       1  UNL1       -0.2137
     12 C7       -1.6142    2.6509    0.9356 C.3     2  UNL2        0.0079
     13 C8        2.8267    4.5685   -3.7636 C.ar    2  UNL2        0.0942
     14 C9       -1.0463   -2.1692    5.5445 C.3     2  UNL2        0.0293
     15 N1       -0.8979    1.5869    0.2208 N.am    2  UNL2       -0.2539
     16 H3       -1.9903    2.2490    1.8861 H       2  UNL2        0.0430
     17 H4       -0.9447    3.4803    1.1700 H       2  UNL2        0.0430
     18 C10       -1.5541    0.3227    0.2611 C.2     2  UNL2        0.3151
     19 O1        1.0074   -1.2194    2.0386 O.2     2  UNL2       -0.2521
     20 H5        2.4365    5.4693   -7.8172 H       2  UNL2        0.0473
     21 N2       -0.7988   -0.7178    0.7179 N.am    2  UNL2       -0.1978
     22 O2       -2.7361    0.2439   -0.0081 O.2     2  UNL2       -0.2518
     23 H6        3.7025    6.3988   -6.9641 H       2  UNL2        0.0473
     24 C11        0.4407   -0.4999    1.2325 C.2     2  UNL2        0.3128
     25 N3       -2.2092   -0.4544    3.0326 N.2     2  UNL2       -0.0650
     26 N4        3.2640    5.3932   -4.7266 N.ar    2  UNL2       -0.1714
     27 N5        1.1225    0.6539    0.7977 N.am    2  UNL2       -0.2650
     28 H7        1.7539    3.1124   -6.5474 H       2  UNL2        0.0832
     29 C12        2.0245    3.5254   -4.3404 C.ar    2  UNL2        0.0216
     30 H8        3.7809    5.3139   -1.9647 H       2  UNL2        0.0655
     31 C13       -1.5149   -1.9183    1.1712 C.3     2  UNL2        0.1293
     32 H9       -2.1317    0.0141    5.0996 H       2  UNL2        0.1002
     33 H10       -0.2047   -1.7195    5.0023 H       2  UNL2        0.0428
     34 C14       -1.9660   -1.6722    2.6078 C.2     2  UNL2        0.3181
     35 H11       -2.4045   -2.1042    0.5576 H       2  UNL2        0.0596
     36 H12       -0.8643   -2.8004    1.1338 H       2  UNL2        0.0596
     37 N6       -2.0955   -2.6813    3.5212 N.pl3   2  UNL2       -0.1527
     38 H13       -1.1535   -1.6473    6.5023 H       2  UNL2        0.0428
     39 H14       -0.7879   -3.2086    5.7746 H       2  UNL2        0.0428
     40 N7       -2.3054   -2.1127    4.7880 N.3     2  UNL2       -0.1141
     41 N8        2.8562    4.8268   -5.8813 N.ar    2  UNL2       -0.2733
     42 C15        3.1037    4.5892   -2.3919 C.ar    2  UNL2       -0.0138
     43 C16       -2.6166   -0.7136    4.4384 C.3     2  UNL2        0.2168
     44 CL1        3.3609    3.1125   -0.1831 Cl      2  UNL2       -0.0816
     45 N9        0.8617    1.5768   -1.4137 N.pl3   2  UNL2       -0.3095
     46 C17        2.5585    3.4854   -1.6840 C.ar    2  UNL2        0.0639
     47 C18        3.2920    5.4005   -7.1409 C.3     2  UNL2        0.0302
     48 C19        1.6128    2.5427   -2.2294 C.ar    2  UNL2        0.0489
     49 H15        4.0662    4.7541   -7.5626 H       2  UNL2        0.0473
     50 H16        2.0149    0.8019    1.2544 H       2  UNL2        0.1536
     51 C20        1.3706    2.4980   -3.6363 C.ar    2  UNL2       -0.0287
     52 C21        2.1066    3.6893   -5.7014 C.ar    2  UNL2        0.0330
     53 H17        0.7622    1.7491   -4.1204 H       2  UNL2        0.0643
     54 H18        1.3742   -2.7427   -1.6316 H       1  UNL1        0.0943
     55 H19        5.2409   -4.5560    0.2412 H       1  UNL1        0.0301
     56 H20        4.6874   -4.0670    1.8569 H       1  UNL1        0.0301
     57 H21        0.8473    2.6264    0.4010 H       2  UNL2        0.0932
     58 H22       -2.4511    3.0004    0.3290 H       2  UNL2        0.0430
     59 H23       -1.7482   -3.6295    3.4107 H       2  UNL2        0.3178
     60 H24       -3.6992   -0.5558    4.5184 H       2  UNL2        0.1002
     61 H25        0.3463    0.8881   -1.9558 H       2  UNL2        0.1494
@<TRIPOS>BOND
     1     2     5    1
     2     5     9    2
     3     8     9    1
     4    10    27    1
     5    10    15    1
     6    10    45    1
     7    13    26   ar
     8    13    29   ar
     9    13    42   ar
    10    14    33    1
    11    14    38    1
    12    14    39    1
    13    14    40    1
    14    18    21   am
    15    18    22    2
    16    24    27   am
    17    29    51   ar
    18    29    52   ar
    19    31    34    1
    20    31    35    1
    21    31    36    1
    22    34    37    1
    23    42    46   ar
    24    46    48   ar
    25    47    49    1
    26    48    51   ar
    27    51    53    1
    28    44    46    1
    29     3     5    1
    30     4     9    1
    31     7     8    1
    32    20    47    1
    33    23    47    1
    34    28    52    1
    35    30    42    1
    36    32    43    1
    37    15    18   am
    38    21    24   am
    39    21    31    1
    40    25    34    2
    41    25    43    1
    42    26    41   ar
    43    27    50    1
    44    37    40    1
    45    40    43    1
    46    41    47    1
    47    41    52   ar
    48    45    48    1
    49    19    24    2
    50    11     1    1
    51     8     1    2
    52    16    12    1
    53    15    12    1
    54    12    17    1
    55     2     6    1
    56     1    54    1
    57     2    55    1
    58     2    56    1
    59    10    57    1
    60    12    58    1
    61    37    59    1
    62    43    60    1
    63    45    61    1
