@<TRIPOS>MOLECULE
./pdbUnique/ligand_unique.pdb
 79 81 0 0 0
SMALL
GASTEIGER

@<TRIPOS>ATOM
      1 O1        1.1834   -3.0440    0.8059 O.3     1  HOH1       -0.4105
      2 N1        2.8261   -0.7531    1.1511 N.3     2  UNL2       -0.3065
      3 C1        2.8712   -0.3923    2.6100 C.3     2  UNL2        0.0216
      4 C2        2.2601    0.3531    0.2938 C.3     2  UNL2        0.0403
      5 C3        3.1252    1.6696    0.3321 C.3     2  UNL2        0.0981
      6 O2        2.5078    2.7121   -0.4452 O.3     2  UNL2       -0.3876
      7 C4        4.6430    1.5414   -0.0014 C.3     2  UNL2        0.0981
      8 O3        5.2666    2.7942    0.3887 O.3     2  UNL2       -0.3876
      9 C5        5.1636    1.1167   -1.4453 C.3     2  UNL2        0.0403
     10 C6        4.8806    3.2644   -2.5631 C.3     2  UNL2        0.0216
     11 N2        4.5384    1.8191   -2.6278 N.3     2  UNL2       -0.3065
     12 C7        3.2078   -1.4861    3.6370 C.ar    2  UNL2       -0.0318
     13 C8        3.4617   -2.8210    3.3212 C.ar    2  UNL2       -0.0572
     14 C9        3.6938   -3.7771    4.3245 C.ar    2  UNL2       -0.0597
     15 C10        3.6993   -3.4133    5.6710 C.ar    2  UNL2       -0.0410
     16 C11        3.5120   -2.0834    6.0355 C.ar    2  UNL2        0.0248
     17 N3        3.3675   -1.7548    7.3939 N.pl3   2  UNL2       -0.3580
     18 C12        3.2300   -1.1438    5.0205 C.ar    2  UNL2       -0.0366
     19 C13        1.8926    0.0709   -1.2198 C.3     2  UNL2       -0.0097
     20 C14        1.0035   -1.0810   -1.6060 C.ar    2  UNL2       -0.0458
     21 C15       -0.3756   -1.0107   -1.3772 C.ar    2  UNL2       -0.0585
     22 C16       -1.2032   -2.0743   -1.7333 C.ar    2  UNL2       -0.0615
     23 C17       -0.6634   -3.2118   -2.3332 C.ar    2  UNL2       -0.0617
     24 C18        0.6975   -3.2677   -2.6267 C.ar    2  UNL2       -0.0615
     25 C19        1.5252   -2.1990   -2.2809 C.ar    2  UNL2       -0.0585
     26 C20        5.2486   -0.4469   -1.5180 C.3     2  UNL2       -0.0097
     27 C21        6.0361   -1.0509   -2.6567 C.ar    2  UNL2       -0.0458
     28 C22        5.4428   -1.3037   -3.9012 C.ar    2  UNL2       -0.0585
     29 C23        6.1654   -1.9489   -4.9079 C.ar    2  UNL2       -0.0615
     30 C24        7.4828   -2.3458   -4.6815 C.ar    2  UNL2       -0.0617
     31 C25        8.0789   -2.1038   -3.4464 C.ar    2  UNL2       -0.0615
     32 C26        7.3595   -1.4600   -2.4404 C.ar    2  UNL2       -0.0585
     33 C27        4.3788    4.2249   -3.6322 C.ar    2  UNL2       -0.0318
     34 C28        4.5996    5.6055   -3.3718 C.ar    2  UNL2       -0.0366
     35 C29        4.1913    6.6172   -4.2420 C.ar    2  UNL2        0.0248
     36 N4        4.5233    7.9489   -3.9773 N.pl3   2  UNL2       -0.3580
     37 C30        3.6615    6.2442   -5.4703 C.ar    2  UNL2       -0.0410
     38 C31        3.4252    4.8941   -5.7550 C.ar    2  UNL2       -0.0597
     39 C32        3.7734    3.8818   -4.8384 C.ar    2  UNL2       -0.0572
     40 H1        1.8888   -0.0012    2.9011 H       2  UNL2        0.0474
     41 H2        3.6191    0.3948    2.7548 H       2  UNL2        0.0474
     42 H3        1.2873    0.5995    0.7451 H       2  UNL2        0.0490
     43 H4        3.0641    2.0555    1.3582 H       2  UNL2        0.0635
     44 H5        1.5428    2.6516   -0.3635 H       2  UNL2        0.2100
     45 H6        5.0630    0.8235    0.7116 H       2  UNL2        0.0635
     46 H7        6.1756    2.8006    0.0498 H       2  UNL2        0.2100
     47 H8        6.2118    1.4171   -1.4874 H       2  UNL2        0.0490
     48 H9        5.9718    3.3562   -2.5736 H       2  UNL2        0.0474
     49 H10        4.4966    3.6766   -1.6374 H       2  UNL2        0.0474
     50 H11        3.4503   -3.1572    2.2899 H       2  UNL2        0.0621
     51 H12        3.8451   -4.8192    4.0599 H       2  UNL2        0.0618
     52 H13        3.8414   -4.1822    6.4331 H       2  UNL2        0.0636
     53 H14        3.5097   -0.7739    7.6099 H       2  UNL2        0.1423
     54 H15        3.8748   -2.3693    8.0205 H       2  UNL2        0.1423
     55 H16        3.0136   -0.1191    5.3145 H       2  UNL2        0.0639
     56 H17        2.7728    0.0267   -1.8475 H       2  UNL2        0.0329
     57 H18        1.3806    0.9569   -1.6198 H       2  UNL2        0.0329
     58 H19       -0.8130   -0.1187   -0.9333 H       2  UNL2        0.0620
     59 H20       -2.2721   -2.0167   -1.5450 H       2  UNL2        0.0618
     60 H21       -1.3060   -4.0516   -2.5848 H       2  UNL2        0.0618
     61 H22        1.1143   -4.1419   -3.1223 H       2  UNL2        0.0618
     62 H23        2.5817   -2.2498   -2.5364 H       2  UNL2        0.0620
     63 H24        5.7329   -0.7860   -0.5907 H       2  UNL2        0.0329
     64 H25        4.2916   -0.9613   -1.4829 H       2  UNL2        0.0329
     65 H26        4.4070   -1.0270   -4.0860 H       2  UNL2        0.0620
     66 H27        5.6974   -2.1558   -5.8674 H       2  UNL2        0.0618
     67 H28        8.0427   -2.8525   -5.4631 H       2  UNL2        0.0618
     68 H29        9.0985   -2.4295   -3.2591 H       2  UNL2        0.0618
     69 H30        7.8295   -1.3093   -1.4706 H       2  UNL2        0.0620
     70 H31        5.1066    5.8806   -2.4500 H       2  UNL2        0.0639
     71 H32        3.9505    8.6164   -4.4821 H       2  UNL2        0.1423
     72 H33        4.5634    8.1623   -2.9830 H       2  UNL2        0.1423
     73 H34        3.4110    6.9980   -6.2135 H       2  UNL2        0.0636
     74 H35        2.9835    4.6257   -6.7095 H       2  UNL2        0.0618
     75 H36        3.5726    2.8472   -5.0908 H       2  UNL2        0.0621
     76 H37        1.7340   -3.1557    0.0110 H       1  HOH1        0.2052
     77 H38        0.3326   -2.7784    0.4163 H       1  HOH1        0.2052
     78 H39        2.1734   -1.5493    1.1056 H       2  UNL2        0.1226
     79 H40        4.9540    1.4445   -3.4807 H       2  UNL2        0.1226
@<TRIPOS>BOND
     1    54    17    1
     2    53    17    1
     3    17    16    1
     4    59    22    1
     5    16    18   ar
     6    16    15   ar
     7    55    18    1
     8    60    23    1
     9    22    23   ar
    10    22    21   ar
    11    52    15    1
    12    58    21    1
    13    18    12   ar
    14    23    24   ar
    15    15    14   ar
    16    21    20   ar
    17    40     3    1
    18    12     3    1
    19    12    13   ar
    20    24    61    1
    21    24    25   ar
    22    14    51    1
    23    14    13   ar
    24    20    25   ar
    25    20    19    1
    26    57    19    1
    27     3    41    1
    28     3     2    1
    29    13    50    1
    30    25    62    1
    31    19    56    1
    32    19     4    1
    33    42     4    1
    34     2     4    1
    35     4     5    1
    36    75    39    1
    37    49    10    1
    38     6     5    1
    39     6    44    1
    40     5    43    1
    41     5     7    1
    42    39    38   ar
    43    39    33   ar
    44    74    38    1
    45    45     7    1
    46    11    10    1
    47    11     9    1
    48    10    48    1
    49    10    33    1
    50     7     9    1
    51     7     8    1
    52    38    37   ar
    53    33    34   ar
    54     9    47    1
    55     9    26    1
    56    63    26    1
    57     8    46    1
    58    26    64    1
    59    26    27    1
    60    37    73    1
    61    37    35   ar
    62    34    70    1
    63    34    35   ar
    64    35    36    1
    65    69    32    1
    66    27    32   ar
    67    27    28   ar
    68    32    31   ar
    69    65    28    1
    70    36    72    1
    71    36    71    1
    72    28    29   ar
    73    31    68    1
    74    31    30   ar
    75    29    30   ar
    76    29    66    1
    77    30    67    1
    78     1    76    1
    79     1    77    1
    80     2    78    1
    81    11    79    1
